* NGSPICE file created from axi4_full_basic.ext - technology: sky130A

* Black-box entry subcircuit for sky130_fd_sc_hd__decap_3 abstract view
.subckt sky130_fd_sc_hd__decap_3 VGND VNB VPB VPWR
.ends

* Black-box entry subcircuit for sky130_fd_sc_hd__tapvpwrvgnd_1 abstract view
.subckt sky130_fd_sc_hd__tapvpwrvgnd_1 VGND VPWR
.ends

* Black-box entry subcircuit for sky130_fd_sc_hd__decap_6 abstract view
.subckt sky130_fd_sc_hd__decap_6 VGND VNB VPB VPWR
.ends

* Black-box entry subcircuit for sky130_fd_sc_hd__fill_1 abstract view
.subckt sky130_fd_sc_hd__fill_1 VGND VNB VPB VPWR
.ends

* Black-box entry subcircuit for sky130_ef_sc_hd__decap_12 abstract view
.subckt sky130_ef_sc_hd__decap_12 VGND VPWR VPB VNB
.ends

* Black-box entry subcircuit for sky130_fd_sc_hd__decap_4 abstract view
.subckt sky130_fd_sc_hd__decap_4 VGND VNB VPB VPWR
.ends

* Black-box entry subcircuit for sky130_fd_sc_hd__buf_4 abstract view
.subckt sky130_fd_sc_hd__buf_4 A VGND VNB VPB VPWR X
.ends

* Black-box entry subcircuit for sky130_fd_sc_hd__a21boi_1 abstract view
.subckt sky130_fd_sc_hd__a21boi_1 A1 A2 B1_N VGND VNB VPB VPWR Y
.ends

* Black-box entry subcircuit for sky130_fd_sc_hd__decap_8 abstract view
.subckt sky130_fd_sc_hd__decap_8 VGND VNB VPB VPWR
.ends

* Black-box entry subcircuit for sky130_fd_sc_hd__diode_2 abstract view
.subckt sky130_fd_sc_hd__diode_2 DIODE VGND VNB VPB VPWR
.ends

* Black-box entry subcircuit for sky130_fd_sc_hd__clkbuf_4 abstract view
.subckt sky130_fd_sc_hd__clkbuf_4 A VGND VNB VPB VPWR X
.ends

* Black-box entry subcircuit for sky130_fd_sc_hd__nand3b_1 abstract view
.subckt sky130_fd_sc_hd__nand3b_1 A_N B C VGND VNB VPB VPWR Y
.ends

* Black-box entry subcircuit for sky130_fd_sc_hd__buf_1 abstract view
.subckt sky130_fd_sc_hd__buf_1 A VGND VNB VPB VPWR X
.ends

* Black-box entry subcircuit for sky130_fd_sc_hd__fill_2 abstract view
.subckt sky130_fd_sc_hd__fill_2 VGND VNB VPB VPWR
.ends

* Black-box entry subcircuit for sky130_fd_sc_hd__inv_2 abstract view
.subckt sky130_fd_sc_hd__inv_2 A VGND VNB VPB VPWR Y
.ends

* Black-box entry subcircuit for sky130_fd_sc_hd__nor2_1 abstract view
.subckt sky130_fd_sc_hd__nor2_1 A B VGND VNB VPB VPWR Y
.ends

* Black-box entry subcircuit for sky130_fd_sc_hd__dlygate4sd3_1 abstract view
.subckt sky130_fd_sc_hd__dlygate4sd3_1 A VGND VNB VPB VPWR X
.ends

* Black-box entry subcircuit for sky130_fd_sc_hd__a21o_1 abstract view
.subckt sky130_fd_sc_hd__a21o_1 A1 A2 B1 VGND VNB VPB VPWR X
.ends

* Black-box entry subcircuit for sky130_fd_sc_hd__buf_2 abstract view
.subckt sky130_fd_sc_hd__buf_2 A VGND VNB VPB VPWR X
.ends

* Black-box entry subcircuit for sky130_fd_sc_hd__clkbuf_16 abstract view
.subckt sky130_fd_sc_hd__clkbuf_16 A VGND VNB VPB VPWR X
.ends

* Black-box entry subcircuit for sky130_fd_sc_hd__dlymetal6s2s_1 abstract view
.subckt sky130_fd_sc_hd__dlymetal6s2s_1 A VGND VNB VPB VPWR X
.ends

* Black-box entry subcircuit for sky130_fd_sc_hd__dfxtp_2 abstract view
.subckt sky130_fd_sc_hd__dfxtp_2 CLK D VGND VNB VPB VPWR Q
.ends

* Black-box entry subcircuit for sky130_fd_sc_hd__dfxtp_4 abstract view
.subckt sky130_fd_sc_hd__dfxtp_4 CLK D VGND VNB VPB VPWR Q
.ends

* Black-box entry subcircuit for sky130_fd_sc_hd__clkbuf_2 abstract view
.subckt sky130_fd_sc_hd__clkbuf_2 A VGND VNB VPB VPWR X
.ends

* Black-box entry subcircuit for sky130_fd_sc_hd__a22o_1 abstract view
.subckt sky130_fd_sc_hd__a22o_1 A1 A2 B1 B2 VGND VNB VPB VPWR X
.ends

* Black-box entry subcircuit for sky130_fd_sc_hd__nand2_1 abstract view
.subckt sky130_fd_sc_hd__nand2_1 A B VGND VNB VPB VPWR Y
.ends

* Black-box entry subcircuit for sky130_fd_sc_hd__o21ai_1 abstract view
.subckt sky130_fd_sc_hd__o21ai_1 A1 A2 B1 VGND VNB VPB VPWR Y
.ends

* Black-box entry subcircuit for sky130_fd_sc_hd__o2bb2ai_1 abstract view
.subckt sky130_fd_sc_hd__o2bb2ai_1 A1_N A2_N B1 B2 VGND VNB VPB VPWR Y
.ends

* Black-box entry subcircuit for sky130_fd_sc_hd__dfrtp_1 abstract view
.subckt sky130_fd_sc_hd__dfrtp_1 CLK D RESET_B VGND VNB VPB VPWR Q
.ends

* Black-box entry subcircuit for sky130_fd_sc_hd__conb_1 abstract view
.subckt sky130_fd_sc_hd__conb_1 VGND VNB VPB VPWR HI LO
.ends

* Black-box entry subcircuit for sky130_fd_sc_hd__nand3_1 abstract view
.subckt sky130_fd_sc_hd__nand3_1 A B C VGND VNB VPB VPWR Y
.ends

* Black-box entry subcircuit for sky130_fd_sc_hd__dfrtp_4 abstract view
.subckt sky130_fd_sc_hd__dfrtp_4 CLK D RESET_B VGND VNB VPB VPWR Q
.ends

* Black-box entry subcircuit for sky130_fd_sc_hd__dfxtp_1 abstract view
.subckt sky130_fd_sc_hd__dfxtp_1 CLK D VGND VNB VPB VPWR Q
.ends

* Black-box entry subcircuit for sky130_fd_sc_hd__o211ai_4 abstract view
.subckt sky130_fd_sc_hd__o211ai_4 A1 A2 B1 C1 VGND VNB VPB VPWR Y
.ends

* Black-box entry subcircuit for sky130_fd_sc_hd__o21bai_1 abstract view
.subckt sky130_fd_sc_hd__o21bai_1 A1 A2 B1_N VGND VNB VPB VPWR Y
.ends

.subckt axi4_full_basic VGND VPWR araddr[0] araddr[10] araddr[11] araddr[12] araddr[13]
+ araddr[14] araddr[15] araddr[16] araddr[17] araddr[18] araddr[19] araddr[1] araddr[20]
+ araddr[21] araddr[22] araddr[23] araddr[24] araddr[25] araddr[26] araddr[27] araddr[28]
+ araddr[29] araddr[2] araddr[30] araddr[31] araddr[3] araddr[4] araddr[5] araddr[6]
+ araddr[7] araddr[8] araddr[9] arid[0] arid[1] arid[2] arid[3] arready arvalid awaddr[0]
+ awaddr[10] awaddr[11] awaddr[12] awaddr[13] awaddr[14] awaddr[15] awaddr[16] awaddr[17]
+ awaddr[18] awaddr[19] awaddr[1] awaddr[20] awaddr[21] awaddr[22] awaddr[23] awaddr[24]
+ awaddr[25] awaddr[26] awaddr[27] awaddr[28] awaddr[29] awaddr[2] awaddr[30] awaddr[31]
+ awaddr[3] awaddr[4] awaddr[5] awaddr[6] awaddr[7] awaddr[8] awaddr[9] awid[0] awid[1]
+ awid[2] awid[3] awlen[0] awlen[1] awlen[2] awlen[3] awlen[4] awlen[5] awlen[6] awlen[7]
+ awready awsize[0] awsize[1] awsize[2] awvalid bid[0] bid[1] bid[2] bid[3] bready
+ bvalid clk rdata[10] rdata[11] rdata[12] rdata[13] rdata[14] rdata[15] rdata[25]
+ rdata[26] rdata[30] rdata[31] rid[0] rid[1] rid[2] rid[3] rlast rready rstn rvalid
+ wdata[0] wdata[10] wdata[11] wdata[12] wdata[13] wdata[14] wdata[15] wdata[16] wdata[17]
+ wdata[18] wdata[19] wdata[1] wdata[20] wdata[21] wdata[22] wdata[23] wdata[24] wdata[25]
+ wdata[26] wdata[27] wdata[28] wdata[29] wdata[2] wdata[30] wdata[31] wdata[3] wdata[4]
+ wdata[5] wdata[6] wdata[7] wdata[8] wdata[9] wlast wready wstrb[0] wstrb[1] wstrb[2]
+ wstrb[3] wvalid rdata[6] rdata[16] rdata[5] rdata[4] rdata[3] rdata[24] rdata[2]
+ rdata[1] rdata[23] rresp[1] rdata[0] rdata[22] rresp[0] rdata[21] bresp[1] rdata[9]
+ bresp[0] rdata[20] rdata[19] rdata[8] rdata[29] rdata[7] rdata[18] rdata[17] rdata[28]
+ rdata[27]
XPHY_EDGE_ROW_176_Left_388 VGND VGND VPWR VPWR sky130_fd_sc_hd__decap_3
XTAP_TAPCELL_ROW_203_4923 VGND VPWR sky130_fd_sc_hd__tapvpwrvgnd_1
XFILLER_0_94_77 VGND VGND VPWR VPWR sky130_fd_sc_hd__decap_6
XTAP_TAPCELL_ROW_2_505 VGND VPWR sky130_fd_sc_hd__tapvpwrvgnd_1
XFILLER_0_59_1231 VGND VGND VPWR VPWR sky130_fd_sc_hd__fill_1
XTAP_TAPCELL_ROW_52_1597 VGND VPWR sky130_fd_sc_hd__tapvpwrvgnd_1
XTAP_TAPCELL_ROW_160_3971 VGND VPWR sky130_fd_sc_hd__tapvpwrvgnd_1
XFILLER_0_27_93 VGND VPWR VPWR VGND sky130_ef_sc_hd__decap_12
XTAP_TAPCELL_ROW_160_3982 VGND VPWR sky130_fd_sc_hd__tapvpwrvgnd_1
XFILLER_0_210_905 VGND VPWR VPWR VGND sky130_ef_sc_hd__decap_12
XTAP_TAPCELL_ROW_195_4746 VGND VPWR sky130_fd_sc_hd__tapvpwrvgnd_1
XFILLER_0_89_461 VGND VPWR VPWR VGND sky130_ef_sc_hd__decap_12
XTAP_TAPCELL_ROW_195_4757 VGND VPWR sky130_fd_sc_hd__tapvpwrvgnd_1
XFILLER_0_167_809 VGND VPWR VPWR VGND sky130_ef_sc_hd__decap_12
XFILLER_0_210_949 VGND VPWR VPWR VGND sky130_ef_sc_hd__decap_12
XFILLER_0_193_105 VGND VGND VPWR VPWR sky130_fd_sc_hd__decap_6
XFILLER_0_76_133 VGND VGND VPWR VPWR sky130_fd_sc_hd__decap_6
XFILLER_0_134_83 VGND VGND VPWR VPWR sky130_fd_sc_hd__fill_1
XFILLER_0_193_149 VGND VPWR VPWR VGND sky130_ef_sc_hd__decap_12
XFILLER_0_159_393 VGND VPWR VPWR VGND sky130_ef_sc_hd__decap_12
XFILLER_0_18_701 VGND VPWR VPWR VGND sky130_ef_sc_hd__decap_12
XFILLER_0_43_81 VGND VPWR VPWR VGND sky130_ef_sc_hd__decap_12
XFILLER_0_175_853 VGND VPWR VPWR VGND sky130_ef_sc_hd__decap_12
XFILLER_0_58_881 VGND VPWR VPWR VGND sky130_ef_sc_hd__decap_12
XFILLER_0_76_177 VGND VPWR VPWR VGND sky130_ef_sc_hd__decap_12
XFILLER_0_92_637 VGND VGND VPWR VPWR sky130_fd_sc_hd__decap_6
XTAP_TAPCELL_ROW_102_2697 VGND VPWR sky130_fd_sc_hd__tapvpwrvgnd_1
XPHY_EDGE_ROW_185_Left_397 VGND VGND VPWR VPWR sky130_fd_sc_hd__decap_3
XFILLER_0_91_125 VGND VPWR VPWR VGND sky130_ef_sc_hd__decap_12
XFILLER_0_174_363 VGND VGND VPWR VPWR sky130_fd_sc_hd__fill_1
XFILLER_0_57_391 VGND VGND VPWR VPWR sky130_fd_sc_hd__fill_1
XFILLER_0_175_897 VGND VPWR VPWR VGND sky130_ef_sc_hd__decap_12
XFILLER_0_119_279 VGND VGND VPWR VPWR sky130_fd_sc_hd__fill_1
XFILLER_0_162_525 VGND VGND VPWR VPWR sky130_fd_sc_hd__decap_6
XFILLER_0_45_553 VGND VGND VPWR VPWR sky130_fd_sc_hd__decap_6
XFILLER_0_91_169 VGND VPWR VPWR VGND sky130_ef_sc_hd__decap_12
XFILLER_0_60_501 VGND VPWR VPWR VGND sky130_ef_sc_hd__decap_12
XFILLER_0_190_867 VGND VGND VPWR VPWR sky130_fd_sc_hd__fill_1
XFILLER_0_73_895 VGND VGND VPWR VPWR sky130_fd_sc_hd__fill_1
XFILLER_0_162_569 VGND VPWR VPWR VGND sky130_ef_sc_hd__decap_12
XFILLER_0_115_441 VGND VGND VPWR VPWR sky130_fd_sc_hd__decap_6
XFILLER_0_45_597 VGND VPWR VPWR VGND sky130_ef_sc_hd__decap_12
XFILLER_0_60_545 VGND VPWR VPWR VGND sky130_ef_sc_hd__decap_12
XFILLER_0_116_997 VGND VGND VPWR VPWR sky130_fd_sc_hd__fill_1
XFILLER_0_143_783 VGND VGND VPWR VPWR sky130_fd_sc_hd__fill_1
XFILLER_0_115_485 VGND VPWR VPWR VGND sky130_ef_sc_hd__decap_12
XFILLER_0_131_945 VGND VGND VPWR VPWR sky130_fd_sc_hd__decap_6
XFILLER_0_14_973 VGND VGND VPWR VPWR sky130_fd_sc_hd__decap_6
XFILLER_0_60_589 VGND VPWR VPWR VGND sky130_ef_sc_hd__decap_12
XFILLER_0_130_433 VGND VPWR VPWR VGND sky130_ef_sc_hd__decap_12
XFILLER_0_13_461 VGND VPWR VPWR VGND sky130_ef_sc_hd__decap_12
XFILLER_0_7_81 VGND VPWR VPWR VGND sky130_ef_sc_hd__decap_12
XFILLER_0_130_477 VGND VPWR VPWR VGND sky130_ef_sc_hd__decap_12
XFILLER_0_99_1033 VGND VPWR VPWR VGND sky130_ef_sc_hd__decap_12
XFILLER_0_99_1077 VGND VPWR VPWR VGND sky130_ef_sc_hd__decap_12
XFILLER_0_204_209 VGND VPWR VPWR VGND sky130_ef_sc_hd__decap_12
XFILLER_0_99_225 VGND VPWR VPWR VGND sky130_ef_sc_hd__decap_12
XFILLER_0_198_923 VGND VGND VPWR VPWR sky130_fd_sc_hd__fill_1
XFILLER_0_169_113 VGND VPWR VPWR VGND sky130_ef_sc_hd__decap_12
XFILLER_0_68_601 VGND VPWR VPWR VGND sky130_ef_sc_hd__decap_12
XFILLER_0_185_617 VGND VPWR VPWR VGND sky130_ef_sc_hd__decap_12
XFILLER_0_67_111 VGND VGND VPWR VPWR sky130_fd_sc_hd__fill_1
XFILLER_0_68_645 VGND VPWR VPWR VGND sky130_ef_sc_hd__decap_12
XFILLER_0_36_1061 VGND VPWR VPWR VGND sky130_ef_sc_hd__decap_12
XFILLER_0_83_615 VGND VGND VPWR VPWR sky130_fd_sc_hd__fill_1
XFILLER_0_138_533 VGND VPWR VPWR VGND sky130_ef_sc_hd__decap_12
XFILLER_0_55_317 VGND VPWR VPWR VGND sky130_ef_sc_hd__decap_12
XFILLER_0_95_497 VGND VGND VPWR VPWR sky130_fd_sc_hd__decap_6
XFILLER_0_153_503 VGND VGND VPWR VPWR sky130_fd_sc_hd__fill_1
XFILLER_0_36_531 VGND VGND VPWR VPWR sky130_fd_sc_hd__fill_1
XFILLER_0_125_205 VGND VPWR VPWR VGND sky130_ef_sc_hd__decap_12
XFILLER_0_165_385 VGND VGND VPWR VPWR sky130_fd_sc_hd__decap_6
XFILLER_0_70_309 VGND VPWR VPWR VGND sky130_ef_sc_hd__decap_12
XFILLER_0_180_333 VGND VPWR VPWR VGND sky130_ef_sc_hd__decap_12
XFILLER_0_63_361 VGND VPWR VPWR VGND sky130_ef_sc_hd__decap_12
XFILLER_0_107_953 VGND VPWR VPWR VGND sky130_ef_sc_hd__decap_12
XFILLER_0_125_249 VGND VPWR VPWR VGND sky130_ef_sc_hd__decap_12
XFILLER_0_141_709 VGND VPWR VPWR VGND sky130_ef_sc_hd__decap_12
XFILLER_0_181_889 VGND VGND VPWR VPWR sky130_fd_sc_hd__decap_6
XFILLER_0_24_737 VGND VPWR VPWR VGND sky130_ef_sc_hd__decap_12
XFILLER_0_3_609 VGND VGND VPWR VPWR sky130_fd_sc_hd__decap_6
XFILLER_0_23_225 VGND VPWR VPWR VGND sky130_ef_sc_hd__decap_12
XFILLER_0_180_377 VGND VPWR VPWR VGND sky130_ef_sc_hd__decap_12
XFILLER_0_210_41 VGND VPWR VPWR VGND sky130_ef_sc_hd__decap_12
XFILLER_0_122_923 VGND VGND VPWR VPWR sky130_fd_sc_hd__fill_1
XTAP_TAPCELL_ROW_20_890 VGND VPWR sky130_fd_sc_hd__tapvpwrvgnd_1
XFILLER_0_133_293 VGND VPWR VPWR VGND sky130_ef_sc_hd__decap_12
XFILLER_0_210_85 VGND VPWR VPWR VGND sky130_ef_sc_hd__decap_12
XTAP_TAPCELL_ROW_207_5001 VGND VPWR sky130_fd_sc_hd__tapvpwrvgnd_1
XFILLER_0_107_1033 VGND VPWR VPWR VGND sky130_ef_sc_hd__decap_12
XTAP_TAPCELL_ROW_207_5012 VGND VPWR sky130_fd_sc_hd__tapvpwrvgnd_1
XFILLER_0_32_781 VGND VPWR VPWR VGND sky130_ef_sc_hd__decap_12
XFILLER_0_146_1093 VGND VPWR VPWR VGND sky130_ef_sc_hd__decap_12
XFILLER_0_43_1021 VGND VPWR VPWR VGND sky130_ef_sc_hd__decap_12
XFILLER_0_48_15 VGND VPWR VPWR VGND sky130_ef_sc_hd__decap_12
XFILLER_0_107_1077 VGND VPWR VPWR VGND sky130_ef_sc_hd__decap_12
XFILLER_0_139_39 VGND VPWR VPWR VGND sky130_ef_sc_hd__decap_12
XTAP_TAPCELL_ROW_9_660 VGND VPWR sky130_fd_sc_hd__tapvpwrvgnd_1
XFILLER_0_43_1065 VGND VPWR VPWR VGND sky130_ef_sc_hd__decap_12
XTAP_TAPCELL_ROW_164_4060 VGND VPWR sky130_fd_sc_hd__tapvpwrvgnd_1
XFILLER_0_177_1009 VGND VPWR VPWR VGND sky130_ef_sc_hd__decap_12
XTAP_TAPCELL_ROW_164_4071 VGND VPWR sky130_fd_sc_hd__tapvpwrvgnd_1
XFILLER_0_78_1117 VGND VPWR VPWR VGND sky130_ef_sc_hd__decap_12
XFILLER_0_155_27 VGND VPWR VPWR VGND sky130_ef_sc_hd__decap_12
XTAP_TAPCELL_ROW_30_1114 VGND VPWR sky130_fd_sc_hd__tapvpwrvgnd_1
XFILLER_0_3_39 VGND VPWR VPWR VGND sky130_ef_sc_hd__decap_12
XTAP_TAPCELL_ROW_30_1125 VGND VPWR sky130_fd_sc_hd__tapvpwrvgnd_1
XFILLER_0_189_945 VGND VGND VPWR VPWR sky130_fd_sc_hd__decap_6
XTAP_TAPCELL_ROW_86_2350 VGND VPWR sky130_fd_sc_hd__tapvpwrvgnd_1
XFILLER_0_188_433 VGND VPWR VPWR VGND sky130_ef_sc_hd__decap_12
XFILLER_0_87_921 VGND VPWR VPWR VGND sky130_ef_sc_hd__decap_12
XFILLER_0_149_809 VGND VPWR VPWR VGND sky130_ef_sc_hd__decap_12
XFILLER_0_192_1091 VGND VGND VPWR VPWR sky130_fd_sc_hd__fill_1
XFILLER_0_189_989 VGND VPWR VPWR VGND sky130_ef_sc_hd__decap_12
XFILLER_0_118_1173 VGND VPWR VPWR VGND sky130_ef_sc_hd__decap_12
XFILLER_0_188_477 VGND VPWR VPWR VGND sky130_ef_sc_hd__decap_12
XFILLER_0_171_15 VGND VPWR VPWR VGND sky130_ef_sc_hd__decap_12
XFILLER_0_175_105 VGND VGND VPWR VPWR sky130_fd_sc_hd__decap_6
XFILLER_0_15_1101 VGND VPWR VPWR VGND sky130_ef_sc_hd__decap_12
XTAP_TAPCELL_ROW_82_2258 VGND VPWR sky130_fd_sc_hd__tapvpwrvgnd_1
XFILLER_0_54_1161 VGND VPWR VPWR VGND sky130_ef_sc_hd__decap_12
XFILLER_0_58_133 VGND VGND VPWR VPWR sky130_fd_sc_hd__decap_6
XFILLER_0_87_965 VGND VPWR VPWR VGND sky130_ef_sc_hd__decap_12
XFILLER_0_114_1037 VGND VPWR VPWR VGND sky130_ef_sc_hd__decap_12
XFILLER_0_147_3 VGND VPWR VPWR VGND sky130_ef_sc_hd__decap_12
XTAP_TAPCELL_ROW_82_2269 VGND VPWR sky130_fd_sc_hd__tapvpwrvgnd_1
XFILLER_0_188_1105 VGND VPWR VPWR VGND sky130_ef_sc_hd__decap_12
XTAP_TAPCELL_ROW_190_4632 VGND VPWR sky130_fd_sc_hd__tapvpwrvgnd_1
XFILLER_0_175_149 VGND VPWR VPWR VGND sky130_ef_sc_hd__decap_12
XFILLER_0_157_853 VGND VPWR VPWR VGND sky130_ef_sc_hd__decap_12
XFILLER_0_15_1145 VGND VPWR VPWR VGND sky130_ef_sc_hd__decap_12
XFILLER_0_86_475 VGND VGND VPWR VPWR sky130_fd_sc_hd__fill_1
XFILLER_0_191_609 VGND VGND VPWR VPWR sky130_fd_sc_hd__decap_6
XTAP_TAPCELL_ROW_190_4643 VGND VPWR sky130_fd_sc_hd__tapvpwrvgnd_1
XTAP_TAPCELL_ROW_28_1065 VGND VPWR sky130_fd_sc_hd__tapvpwrvgnd_1
XFILLER_0_58_177 VGND VPWR VPWR VGND sky130_ef_sc_hd__decap_12
XFILLER_0_89_1213 VGND VPWR VPWR VGND sky130_ef_sc_hd__decap_12
XTAP_TAPCELL_ROW_28_1076 VGND VPWR sky130_fd_sc_hd__tapvpwrvgnd_1
XFILLER_0_74_637 VGND VGND VPWR VPWR sky130_fd_sc_hd__decap_6
XFILLER_0_188_1149 VGND VPWR VPWR VGND sky130_ef_sc_hd__decap_12
XFILLER_0_11_1009 VGND VPWR VPWR VGND sky130_ef_sc_hd__decap_12
XFILLER_0_73_125 VGND VPWR VPWR VGND sky130_ef_sc_hd__decap_12
XFILLER_0_104_53 VGND VPWR VPWR VGND sky130_ef_sc_hd__decap_12
XFILLER_0_200_993 VGND VPWR VPWR VGND sky130_ef_sc_hd__decap_12
XFILLER_0_156_363 VGND VGND VPWR VPWR sky130_fd_sc_hd__fill_1
XFILLER_0_13_51 VGND VGND VPWR VPWR sky130_fd_sc_hd__decap_4
XFILLER_0_157_897 VGND VPWR VPWR VGND sky130_ef_sc_hd__decap_12
XFILLER_0_15_1189 VGND VPWR VPWR VGND sky130_ef_sc_hd__decap_12
XFILLER_0_39_391 VGND VGND VPWR VPWR sky130_fd_sc_hd__fill_1
XFILLER_0_27_553 VGND VGND VPWR VPWR sky130_fd_sc_hd__decap_6
XTAP_TAPCELL_ROW_136_3450 VGND VPWR sky130_fd_sc_hd__tapvpwrvgnd_1
XFILLER_0_144_525 VGND VGND VPWR VPWR sky130_fd_sc_hd__decap_6
XFILLER_0_73_169 VGND VPWR VPWR VGND sky130_ef_sc_hd__decap_12
XFILLER_0_104_97 VGND VPWR VPWR VGND sky130_ef_sc_hd__decap_12
XFILLER_0_183_193 VGND VPWR VPWR VGND sky130_ef_sc_hd__decap_12
XFILLER_0_172_867 VGND VGND VPWR VPWR sky130_fd_sc_hd__fill_1
XFILLER_0_42_501 VGND VPWR VPWR VGND sky130_ef_sc_hd__decap_12
XFILLER_0_55_895 VGND VGND VPWR VPWR sky130_fd_sc_hd__fill_1
XFILLER_0_82_681 VGND VPWR VPWR VGND sky130_ef_sc_hd__decap_12
XFILLER_0_144_569 VGND VPWR VPWR VGND sky130_ef_sc_hd__decap_12
XFILLER_0_27_597 VGND VPWR VPWR VGND sky130_ef_sc_hd__decap_12
XFILLER_0_6_469 VGND VGND VPWR VPWR sky130_fd_sc_hd__decap_6
XFILLER_0_89_55 VGND VGND VPWR VPWR sky130_fd_sc_hd__fill_1
XFILLER_0_42_545 VGND VPWR VPWR VGND sky130_ef_sc_hd__decap_12
XFILLER_0_120_41 VGND VPWR VPWR VGND sky130_ef_sc_hd__decap_12
XFILLER_0_125_783 VGND VGND VPWR VPWR sky130_fd_sc_hd__fill_1
XTAP_TAPCELL_ROW_132_3358 VGND VPWR sky130_fd_sc_hd__tapvpwrvgnd_1
XTAP_TAPCELL_ROW_132_3369 VGND VPWR sky130_fd_sc_hd__tapvpwrvgnd_1
XFILLER_0_113_945 VGND VGND VPWR VPWR sky130_fd_sc_hd__decap_6
XFILLER_0_112_433 VGND VPWR VPWR VGND sky130_ef_sc_hd__decap_12
XTAP_TAPCELL_ROW_188_4583 VGND VPWR sky130_fd_sc_hd__tapvpwrvgnd_1
XFILLER_0_42_589 VGND VPWR VPWR VGND sky130_ef_sc_hd__decap_12
XTAP_TAPCELL_ROW_188_4594 VGND VPWR sky130_fd_sc_hd__tapvpwrvgnd_1
XFILLER_0_11_921 VGND VPWR VPWR VGND sky130_ef_sc_hd__decap_12
XTAP_TAPCELL_ROW_58_1740 VGND VPWR sky130_fd_sc_hd__tapvpwrvgnd_1
XFILLER_0_120_85 VGND VPWR VPWR VGND sky130_ef_sc_hd__decap_12
XFILLER_0_125_1133 VGND VPWR VPWR VGND sky130_ef_sc_hd__decap_12
XFILLER_0_199_1201 VGND VPWR VPWR VGND sky130_ef_sc_hd__decap_12
XFILLER_0_160_1035 VGND VGND VPWR VPWR sky130_fd_sc_hd__fill_1
XFILLER_0_26_1241 VGND VPWR VPWR VGND sky130_ef_sc_hd__decap_12
XFILLER_0_61_1121 VGND VPWR VPWR VGND sky130_ef_sc_hd__decap_12
XFILLER_0_112_477 VGND VPWR VPWR VGND sky130_ef_sc_hd__decap_12
XTAP_TAPCELL_ROW_7_608 VGND VPWR sky130_fd_sc_hd__tapvpwrvgnd_1
XFILLER_0_11_965 VGND VPWR VPWR VGND sky130_ef_sc_hd__decap_12
XFILLER_0_125_1177 VGND VPWR VPWR VGND sky130_ef_sc_hd__decap_12
XFILLER_0_199_1245 VGND VPWR VPWR VGND sky130_ef_sc_hd__decap_12
XFILLER_0_22_1105 VGND VPWR VPWR VGND sky130_ef_sc_hd__decap_12
XTAP_TAPCELL_ROW_7_619 VGND VPWR sky130_fd_sc_hd__tapvpwrvgnd_1
XTAP_TAPCELL_ROW_54_1637 VGND VPWR sky130_fd_sc_hd__tapvpwrvgnd_1
XFILLER_0_201_1021 VGND VPWR VPWR VGND sky130_ef_sc_hd__decap_12
XTAP_TAPCELL_ROW_54_1648 VGND VPWR sky130_fd_sc_hd__tapvpwrvgnd_1
XFILLER_0_10_475 VGND VGND VPWR VPWR sky130_fd_sc_hd__fill_1
XFILLER_0_22_1149 VGND VPWR VPWR VGND sky130_ef_sc_hd__decap_12
XFILLER_0_201_1065 VGND VPWR VPWR VGND sky130_ef_sc_hd__decap_12
XFILLER_0_96_1217 VGND VPWR VPWR VGND sky130_ef_sc_hd__decap_12
XFILLER_0_199_709 VGND VPWR VPWR VGND sky130_ef_sc_hd__decap_12
XTAP_TAPCELL_ROW_108_2840 VGND VPWR sky130_fd_sc_hd__tapvpwrvgnd_1
XFILLER_0_97_729 VGND VPWR VPWR VGND sky130_ef_sc_hd__decap_12
XFILLER_0_210_713 VGND VPWR VPWR VGND sky130_ef_sc_hd__decap_12
XTAP_TAPCELL_ROW_104_2737 VGND VPWR sky130_fd_sc_hd__tapvpwrvgnd_1
XTAP_TAPCELL_ROW_104_2748 VGND VPWR sky130_fd_sc_hd__tapvpwrvgnd_1
XFILLER_0_167_617 VGND VPWR VPWR VGND sky130_ef_sc_hd__decap_12
XFILLER_0_49_111 VGND VGND VPWR VPWR sky130_fd_sc_hd__fill_1
XFILLER_0_145_93 VGND VPWR VPWR VGND sky130_ef_sc_hd__decap_12
XFILLER_0_171_1175 VGND VGND VPWR VPWR sky130_fd_sc_hd__fill_1
XFILLER_0_33_1201 VGND VPWR VPWR VGND sky130_ef_sc_hd__decap_12
XFILLER_0_210_757 VGND VPWR VPWR VGND sky130_ef_sc_hd__decap_12
XPHY_EDGE_ROW_193_Left_405 VGND VGND VPWR VPWR sky130_fd_sc_hd__decap_3
XFILLER_0_65_615 VGND VGND VPWR VPWR sky130_fd_sc_hd__fill_1
XFILLER_0_92_401 VGND VPWR VPWR VGND sky130_ef_sc_hd__decap_12
XFILLER_0_37_317 VGND VPWR VPWR VGND sky130_ef_sc_hd__decap_12
XFILLER_0_33_1245 VGND VPWR VPWR VGND sky130_ef_sc_hd__decap_12
XFILLER_0_194_469 VGND VGND VPWR VPWR sky130_fd_sc_hd__decap_6
XFILLER_0_77_497 VGND VGND VPWR VPWR sky130_fd_sc_hd__decap_6
XFILLER_0_135_503 VGND VGND VPWR VPWR sky130_fd_sc_hd__fill_1
XFILLER_0_18_531 VGND VGND VPWR VPWR sky130_fd_sc_hd__fill_1
XFILLER_0_92_445 VGND VPWR VPWR VGND sky130_ef_sc_hd__decap_12
XFILLER_0_161_81 VGND VPWR VPWR VGND sky130_ef_sc_hd__decap_12
XFILLER_0_107_205 VGND VPWR VPWR VGND sky130_ef_sc_hd__decap_12
XFILLER_0_147_385 VGND VGND VPWR VPWR sky130_fd_sc_hd__decap_6
XFILLER_0_52_309 VGND VPWR VPWR VGND sky130_ef_sc_hd__decap_12
XFILLER_0_162_333 VGND VPWR VPWR VGND sky130_ef_sc_hd__decap_12
XFILLER_0_45_361 VGND VPWR VPWR VGND sky130_ef_sc_hd__decap_12
XFILLER_0_92_489 VGND VPWR VPWR VGND sky130_ef_sc_hd__decap_12
XFILLER_0_107_249 VGND VPWR VPWR VGND sky130_ef_sc_hd__decap_12
XFILLER_0_123_709 VGND VPWR VPWR VGND sky130_ef_sc_hd__decap_12
XFILLER_0_163_889 VGND VGND VPWR VPWR sky130_fd_sc_hd__decap_6
XFILLER_0_162_377 VGND VPWR VPWR VGND sky130_ef_sc_hd__decap_12
XFILLER_0_6_981 VGND VPWR VPWR VGND sky130_ef_sc_hd__decap_12
XFILLER_0_61_865 VGND VPWR VPWR VGND sky130_ef_sc_hd__decap_12
XFILLER_0_104_923 VGND VGND VPWR VPWR sky130_fd_sc_hd__fill_1
XFILLER_0_21_729 VGND VPWR VPWR VGND sky130_ef_sc_hd__decap_12
XFILLER_0_115_293 VGND VPWR VPWR VGND sky130_ef_sc_hd__decap_12
XFILLER_0_131_753 VGND VPWR VPWR VGND sky130_ef_sc_hd__decap_12
XFILLER_0_14_781 VGND VPWR VPWR VGND sky130_ef_sc_hd__decap_12
XFILLER_0_143_1233 VGND VPWR VPWR VGND sky130_ef_sc_hd__decap_12
XFILLER_0_104_1217 VGND VPWR VPWR VGND sky130_ef_sc_hd__decap_12
XFILLER_0_131_797 VGND VGND VPWR VPWR sky130_fd_sc_hd__decap_3
XFILLER_0_40_1205 VGND VPWR VPWR VGND sky130_ef_sc_hd__decap_12
XFILLER_0_18_29 VGND VPWR VPWR VGND sky130_ef_sc_hd__decap_12
XFILLER_0_205_529 VGND VPWR VPWR VGND sky130_ef_sc_hd__decap_12
XFILLER_0_69_921 VGND VPWR VPWR VGND sky130_ef_sc_hd__decap_12
XFILLER_0_87_217 VGND VGND VPWR VPWR sky130_fd_sc_hd__decap_6
XFILLER_0_186_937 VGND VPWR VPWR VGND sky130_ef_sc_hd__decap_12
XFILLER_0_157_105 VGND VGND VPWR VPWR sky130_fd_sc_hd__decap_6
XFILLER_0_69_965 VGND VPWR VPWR VGND sky130_ef_sc_hd__decap_12
XFILLER_0_200_245 VGND VGND VPWR VPWR sky130_fd_sc_hd__decap_6
XFILLER_0_185_447 VGND VGND VPWR VPWR sky130_fd_sc_hd__fill_1
XFILLER_0_68_475 VGND VGND VPWR VPWR sky130_fd_sc_hd__fill_1
XFILLER_0_157_149 VGND VPWR VPWR VGND sky130_ef_sc_hd__decap_12
XFILLER_0_95_261 VGND VPWR VPWR VGND sky130_ef_sc_hd__decap_12
XFILLER_0_139_853 VGND VPWR VPWR VGND sky130_ef_sc_hd__decap_12
XFILLER_0_173_609 VGND VGND VPWR VPWR sky130_fd_sc_hd__decap_6
XFILLER_0_56_637 VGND VGND VPWR VPWR sky130_fd_sc_hd__decap_6
XFILLER_0_200_289 VGND VPWR VPWR VGND sky130_ef_sc_hd__decap_12
XFILLER_0_3_1121 VGND VPWR VPWR VGND sky130_ef_sc_hd__decap_12
XFILLER_0_55_125 VGND VPWR VPWR VGND sky130_ef_sc_hd__decap_12
XFILLER_0_194_981 VGND VPWR VPWR VGND sky130_ef_sc_hd__decap_12
XFILLER_0_138_363 VGND VGND VPWR VPWR sky130_fd_sc_hd__fill_1
XFILLER_0_50_27 VGND VGND VPWR VPWR sky130_fd_sc_hd__fill_1
XFILLER_0_84_979 VGND VGND VPWR VPWR sky130_fd_sc_hd__fill_1
XFILLER_0_139_897 VGND VPWR VPWR VGND sky130_ef_sc_hd__decap_12
XFILLER_0_126_525 VGND VGND VPWR VPWR sky130_fd_sc_hd__decap_6
XFILLER_0_55_169 VGND VPWR VPWR VGND sky130_ef_sc_hd__decap_12
XFILLER_0_165_193 VGND VPWR VPWR VGND sky130_ef_sc_hd__decap_12
XFILLER_0_71_629 VGND VPWR VPWR VGND sky130_ef_sc_hd__decap_12
XFILLER_0_181_653 VGND VPWR VPWR VGND sky130_ef_sc_hd__decap_12
XFILLER_0_24_501 VGND VPWR VPWR VGND sky130_ef_sc_hd__decap_12
XFILLER_0_154_867 VGND VGND VPWR VPWR sky130_fd_sc_hd__fill_1
XFILLER_0_37_895 VGND VGND VPWR VPWR sky130_fd_sc_hd__fill_1
XFILLER_0_64_681 VGND VPWR VPWR VGND sky130_ef_sc_hd__decap_12
XFILLER_0_126_569 VGND VPWR VPWR VGND sky130_ef_sc_hd__decap_12
XFILLER_0_180_141 VGND VPWR VPWR VGND sky130_ef_sc_hd__decap_12
XFILLER_0_70_139 VGND VGND VPWR VPWR sky130_fd_sc_hd__fill_1
XFILLER_0_24_545 VGND VPWR VPWR VGND sky130_ef_sc_hd__decap_12
XFILLER_0_3_417 VGND VPWR VPWR VGND sky130_ef_sc_hd__decap_12
XFILLER_0_141_517 VGND VPWR VPWR VGND sky130_ef_sc_hd__decap_12
XFILLER_0_183_1057 VGND VGND VPWR VPWR sky130_fd_sc_hd__decap_6
XFILLER_0_181_697 VGND VPWR VPWR VGND sky130_ef_sc_hd__decap_12
XFILLER_0_107_783 VGND VGND VPWR VPWR sky130_fd_sc_hd__fill_1
XTAP_TAPCELL_ROW_166_4100 VGND VPWR sky130_fd_sc_hd__tapvpwrvgnd_1
XFILLER_0_24_589 VGND VPWR VPWR VGND sky130_ef_sc_hd__decap_12
XTAP_TAPCELL_ROW_166_4111 VGND VPWR sky130_fd_sc_hd__tapvpwrvgnd_1
XFILLER_0_11_217 VGND VGND VPWR VPWR sky130_fd_sc_hd__decap_6
XFILLER_0_80_1029 VGND VGND VPWR VPWR sky130_fd_sc_hd__decap_6
XFILLER_0_59_69 VGND VPWR VPWR VGND sky130_ef_sc_hd__decap_12
XFILLER_0_110_937 VGND VPWR VPWR VGND sky130_ef_sc_hd__decap_12
XFILLER_0_208_301 VGND VGND VPWR VPWR sky130_fd_sc_hd__decap_6
XTAP_TAPCELL_ROW_162_4019 VGND VPWR sky130_fd_sc_hd__tapvpwrvgnd_1
XFILLER_0_166_15 VGND VPWR VPWR VGND sky130_ef_sc_hd__decap_12
XTAP_TAPCELL_ROW_183_4480 VGND VPWR sky130_fd_sc_hd__tapvpwrvgnd_1
XTAP_TAPCELL_ROW_183_4491 VGND VPWR sky130_fd_sc_hd__tapvpwrvgnd_1
XFILLER_0_208_345 VGND VPWR VPWR VGND sky130_ef_sc_hd__decap_12
XTAP_TAPCELL_ROW_88_2401 VGND VPWR sky130_fd_sc_hd__tapvpwrvgnd_1
XFILLER_0_75_57 VGND VPWR VPWR VGND sky130_ef_sc_hd__decap_12
XFILLER_0_120_1085 VGND VGND VPWR VPWR sky130_fd_sc_hd__decap_6
XFILLER_0_208_389 VGND VPWR VPWR VGND sky130_ef_sc_hd__decap_12
XTAP_TAPCELL_ROW_84_2309 VGND VPWR sky130_fd_sc_hd__tapvpwrvgnd_1
XFILLER_0_190_1017 VGND VPWR VPWR VGND sky130_ef_sc_hd__decap_12
XFILLER_0_194_1197 VGND VGND VPWR VPWR sky130_fd_sc_hd__decap_6
XFILLER_0_79_729 VGND VPWR VPWR VGND sky130_ef_sc_hd__decap_12
XFILLER_0_189_753 VGND VPWR VPWR VGND sky130_ef_sc_hd__decap_12
XFILLER_0_149_617 VGND VPWR VPWR VGND sky130_ef_sc_hd__decap_12
XFILLER_0_189_797 VGND VPWR VPWR VGND sky130_ef_sc_hd__decap_12
XFILLER_0_91_1169 VGND VGND VPWR VPWR sky130_fd_sc_hd__decap_6
XTAP_TAPCELL_ROW_138_3501 VGND VPWR sky130_fd_sc_hd__tapvpwrvgnd_1
XFILLER_0_47_615 VGND VGND VPWR VPWR sky130_fd_sc_hd__fill_1
XFILLER_0_74_401 VGND VPWR VPWR VGND sky130_ef_sc_hd__decap_12
XFILLER_0_176_469 VGND VGND VPWR VPWR sky130_fd_sc_hd__decap_6
XFILLER_0_19_317 VGND VPWR VPWR VGND sky130_ef_sc_hd__decap_12
XFILLER_0_24_83 VGND VGND VPWR VPWR sky130_fd_sc_hd__fill_1
XFILLER_0_59_497 VGND VGND VPWR VPWR sky130_fd_sc_hd__decap_6
XTAP_TAPCELL_ROW_47_1485 VGND VPWR sky130_fd_sc_hd__tapvpwrvgnd_1
XFILLER_0_191_417 VGND VPWR VPWR VGND sky130_ef_sc_hd__decap_12
XTAP_TAPCELL_ROW_47_1496 VGND VPWR sky130_fd_sc_hd__tapvpwrvgnd_1
XFILLER_0_89_1021 VGND VPWR VPWR VGND sky130_ef_sc_hd__decap_12
XFILLER_0_117_503 VGND VGND VPWR VPWR sky130_fd_sc_hd__fill_1
XFILLER_0_74_445 VGND VPWR VPWR VGND sky130_ef_sc_hd__decap_12
XFILLER_0_90_905 VGND VPWR VPWR VGND sky130_ef_sc_hd__decap_12
XTAP_TAPCELL_ROW_134_3409 VGND VPWR sky130_fd_sc_hd__tapvpwrvgnd_1
XFILLER_0_129_385 VGND VGND VPWR VPWR sky130_fd_sc_hd__decap_6
XFILLER_0_34_309 VGND VPWR VPWR VGND sky130_ef_sc_hd__decap_12
XTAP_TAPCELL_ROW_155_3870 VGND VPWR sky130_fd_sc_hd__tapvpwrvgnd_1
XFILLER_0_74_489 VGND VPWR VPWR VGND sky130_ef_sc_hd__decap_12
XFILLER_0_89_1065 VGND VPWR VPWR VGND sky130_ef_sc_hd__decap_12
XFILLER_0_144_333 VGND VPWR VPWR VGND sky130_ef_sc_hd__decap_12
XFILLER_0_27_361 VGND VPWR VPWR VGND sky130_ef_sc_hd__decap_12
XFILLER_0_6_233 VGND VPWR VPWR VGND sky130_ef_sc_hd__decap_12
XFILLER_0_90_949 VGND VPWR VPWR VGND sky130_ef_sc_hd__decap_12
XFILLER_0_43_821 VGND VPWR VPWR VGND sky130_ef_sc_hd__decap_12
XFILLER_0_105_709 VGND VPWR VPWR VGND sky130_ef_sc_hd__decap_12
XFILLER_0_131_51 VGND VGND VPWR VPWR sky130_fd_sc_hd__decap_4
XFILLER_0_145_889 VGND VGND VPWR VPWR sky130_fd_sc_hd__decap_6
XFILLER_0_144_377 VGND VPWR VPWR VGND sky130_ef_sc_hd__decap_12
XFILLER_0_160_837 VGND VPWR VPWR VGND sky130_ef_sc_hd__decap_12
XFILLER_0_6_277 VGND VPWR VPWR VGND sky130_ef_sc_hd__decap_12
XFILLER_0_43_865 VGND VPWR VPWR VGND sky130_ef_sc_hd__decap_12
XTAP_TAPCELL_ROW_151_3778 VGND VPWR sky130_fd_sc_hd__tapvpwrvgnd_1
XTAP_TAPCELL_ROW_151_3789 VGND VPWR sky130_fd_sc_hd__tapvpwrvgnd_1
XFILLER_0_3_951 VGND VGND VPWR VPWR sky130_fd_sc_hd__fill_1
XFILLER_0_71_3 VGND VPWR VPWR VGND sky130_ef_sc_hd__decap_12
XFILLER_0_113_753 VGND VPWR VPWR VGND sky130_ef_sc_hd__decap_12
XFILLER_0_113_797 VGND VPWR VPWR VGND sky130_ef_sc_hd__decap_12
XFILLER_0_26_1093 VGND VPWR VPWR VGND sky130_ef_sc_hd__decap_12
XFILLER_0_100_469 VGND VGND VPWR VPWR sky130_fd_sc_hd__decap_6
XFILLER_0_199_517 VGND VPWR VPWR VGND sky130_ef_sc_hd__decap_12
XFILLER_0_57_1009 VGND VPWR VPWR VGND sky130_ef_sc_hd__decap_12
XFILLER_0_69_217 VGND VGND VPWR VPWR sky130_fd_sc_hd__decap_6
XFILLER_0_97_559 VGND VGND VPWR VPWR sky130_fd_sc_hd__fill_1
XFILLER_0_168_937 VGND VPWR VPWR VGND sky130_ef_sc_hd__decap_12
XFILLER_0_139_105 VGND VGND VPWR VPWR sky130_fd_sc_hd__decap_6
XFILLER_0_84_209 VGND VPWR VPWR VGND sky130_ef_sc_hd__decap_12
XFILLER_0_194_233 VGND VPWR VPWR VGND sky130_ef_sc_hd__decap_12
XFILLER_0_167_447 VGND VGND VPWR VPWR sky130_fd_sc_hd__fill_1
XFILLER_0_77_261 VGND VPWR VPWR VGND sky130_ef_sc_hd__decap_12
XFILLER_0_139_149 VGND VPWR VPWR VGND sky130_ef_sc_hd__decap_12
XFILLER_0_155_609 VGND VGND VPWR VPWR sky130_fd_sc_hd__decap_6
XFILLER_0_93_721 VGND VGND VPWR VPWR sky130_fd_sc_hd__decap_6
XFILLER_0_210_587 VGND VGND VPWR VPWR sky130_fd_sc_hd__fill_1
XFILLER_0_38_637 VGND VGND VPWR VPWR sky130_fd_sc_hd__decap_6
XFILLER_0_72_1091 VGND VGND VPWR VPWR sky130_fd_sc_hd__fill_1
XFILLER_0_194_277 VGND VPWR VPWR VGND sky130_ef_sc_hd__decap_12
XFILLER_0_37_125 VGND VPWR VPWR VGND sky130_ef_sc_hd__decap_12
XFILLER_0_176_981 VGND VPWR VPWR VGND sky130_ef_sc_hd__decap_12
XFILLER_0_66_979 VGND VGND VPWR VPWR sky130_fd_sc_hd__fill_1
XFILLER_0_93_765 VGND VPWR VPWR VGND sky130_ef_sc_hd__decap_12
XFILLER_0_108_525 VGND VGND VPWR VPWR sky130_fd_sc_hd__decap_6