*SPEF "ieee 1481-1999"
*DESIGN "axi4_full_basic"
*DATE "11:11:11 Fri 11 11, 1111"
*VENDOR "OpenRCX"
*PROGRAM "Parallel Extraction"
*VERSION "1.0"
*DESIGN_FLOW "NAME_SCOPE LOCAL" "PIN_CAP NONE"
*DIVIDER /
*DELIMITER :
*BUS_DELIMITER []
*T_UNIT 1 NS
*C_UNIT 1 PF
*R_UNIT 1 OHM
*L_UNIT 1 HENRY

*NAME_MAP
*3 araddr[0]
*4 araddr[10]
*5 araddr[11]
*6 araddr[12]
*7 araddr[13]
*8 araddr[14]
*9 araddr[15]
*10 araddr[16]
*11 araddr[17]
*12 araddr[18]
*13 araddr[19]
*14 araddr[1]
*15 araddr[20]
*16 araddr[21]
*17 araddr[22]
*18 araddr[23]
*19 araddr[24]
*20 araddr[25]
*21 araddr[26]
*22 araddr[27]
*23 araddr[28]
*24 araddr[29]
*25 araddr[2]
*26 araddr[30]
*27 araddr[31]
*28 araddr[3]
*29 araddr[4]
*30 araddr[5]
*31 araddr[6]
*32 araddr[7]
*33 araddr[8]
*34 araddr[9]
*35 arid[0]
*36 arid[1]
*37 arid[2]
*38 arid[3]
*39 arready
*40 arvalid
*41 awaddr[0]
*42 awaddr[10]
*43 awaddr[11]
*44 awaddr[12]
*45 awaddr[13]
*46 awaddr[14]
*47 awaddr[15]
*48 awaddr[16]
*49 awaddr[17]
*50 awaddr[18]
*51 awaddr[19]
*52 awaddr[1]
*53 awaddr[20]
*54 awaddr[21]
*55 awaddr[22]
*56 awaddr[23]
*57 awaddr[24]
*58 awaddr[25]
*59 awaddr[26]
*60 awaddr[27]
*61 awaddr[28]
*62 awaddr[29]
*63 awaddr[2]
*64 awaddr[30]
*65 awaddr[31]
*66 awaddr[3]
*67 awaddr[4]
*68 awaddr[5]
*69 awaddr[6]
*70 awaddr[7]
*71 awaddr[8]
*72 awaddr[9]
*73 awid[0]
*74 awid[1]
*75 awid[2]
*76 awid[3]
*77 awlen[0]
*78 awlen[1]
*79 awlen[2]
*80 awlen[3]
*81 awlen[4]
*82 awlen[5]
*83 awlen[6]
*84 awlen[7]
*85 awready
*86 awsize[0]
*87 awsize[1]
*88 awsize[2]
*89 awvalid
*90 bid[0]
*91 bid[1]
*92 bid[2]
*93 bid[3]
*94 bready
*95 net31
*96 net32
*97 bvalid
*98 clk
*99 net33
*100 net43
*101 net44
*102 net45
*103 net46
*104 net47
*105 net48
*106 net49
*107 net50
*108 net51
*109 net52
*110 net34
*111 net53
*112 net54
*113 net55
*114 net56
*115 net57
*116 net58
*117 net59
*118 net60
*119 net61
*120 net62
*121 net35
*122 net63
*123 net64
*124 net36
*125 net37
*126 net38
*127 net39
*128 net40
*129 net41
*130 net42
*131 rid[0]
*132 rid[1]
*133 rid[2]
*134 rid[3]
*135 rlast
*136 rready
*137 net65
*138 net66
*139 rstn
*140 rvalid
*141 wdata[0]
*142 wdata[10]
*143 wdata[11]
*144 wdata[12]
*145 wdata[13]
*146 wdata[14]
*147 wdata[15]
*148 wdata[16]
*149 wdata[17]
*150 wdata[18]
*151 wdata[19]
*152 wdata[1]
*153 wdata[20]
*154 wdata[21]
*155 wdata[22]
*156 wdata[23]
*157 wdata[24]
*158 wdata[25]
*159 wdata[26]
*160 wdata[27]
*161 wdata[28]
*162 wdata[29]
*163 wdata[2]
*164 wdata[30]
*165 wdata[31]
*166 wdata[3]
*167 wdata[4]
*168 wdata[5]
*169 wdata[6]
*170 wdata[7]
*171 wdata[8]
*172 wdata[9]
*173 wlast
*174 wready
*175 wstrb[0]
*176 wstrb[1]
*177 wstrb[2]
*178 wstrb[3]
*179 wvalid
*180 _000_
*181 _001_
*182 _002_
*183 _003_
*184 _004_
*185 _005_
*186 _006_
*187 _007_
*188 _008_
*189 _009_
*190 _010_
*191 _011_
*192 _012_
*193 _013_
*194 _014_
*195 _015_
*196 _016_
*197 _017_
*198 _018_
*199 _019_
*200 _020_
*201 _021_
*202 _022_
*203 _023_
*204 _024_
*205 _025_
*206 _026_
*207 _027_
*208 _028_
*209 _029_
*210 _030_
*211 _031_
*212 _032_
*213 _033_
*214 _034_
*215 _035_
*216 _036_
*217 _037_
*218 clknet_0_clk
*219 clknet_1_0__leaf_clk
*220 clknet_1_1__leaf_clk
*221 net1
*222 net10
*223 net11
*224 net12
*225 net13
*226 net14
*227 net15
*228 net16
*229 net17
*230 net18
*231 net19
*232 net2
*233 net20
*234 net21
*235 net22
*236 net23
*237 net24
*238 net25
*239 net26
*240 net27
*241 net28
*242 net29
*243 net3
*244 net30
*245 net4
*246 net5
*247 net6
*248 net67
*249 net68
*250 net69
*251 net7
*252 net70
*253 net71
*254 net72
*255 net73
*256 net74
*257 net75
*258 net76
*259 net77
*260 net78
*261 net8
*262 net9
*263 read_state
*264 write_state
*265 ANTENNA_1
*266 ANTENNA_2
*267 ANTENNA_3
*268 ANTENNA_4
*269 ANTENNA_5
*270 ANTENNA_6
*271 FILLER_0_0_1007
*272 FILLER_0_0_1009
*273 FILLER_0_0_1021
*274 FILLER_0_0_1033
*275 FILLER_0_0_1037
*276 FILLER_0_0_1049
*277 FILLER_0_0_1061
*278 FILLER_0_0_1065
*279 FILLER_0_0_1077
*280 FILLER_0_0_1089
*281 FILLER_0_0_109
*282 FILLER_0_0_1093
*283 FILLER_0_0_1103
*284 FILLER_0_0_1115
*285 FILLER_0_0_1119
*286 FILLER_0_0_1121
*287 FILLER_0_0_113
*288 FILLER_0_0_1133
*289 FILLER_0_0_1145
*290 FILLER_0_0_1149
*291 FILLER_0_0_1161
*292 FILLER_0_0_1173
*293 FILLER_0_0_1177
*294 FILLER_0_0_1189
*295 FILLER_0_0_1201
*296 FILLER_0_0_1205
*297 FILLER_0_0_1214
*298 FILLER_0_0_122
*299 FILLER_0_0_1226
*300 FILLER_0_0_1233
*301 FILLER_0_0_1245
*302 FILLER_0_0_134
*303 FILLER_0_0_141
*304 FILLER_0_0_15
*305 FILLER_0_0_153
*306 FILLER_0_0_165
*307 FILLER_0_0_169
*308 FILLER_0_0_178
*309 FILLER_0_0_190
*310 FILLER_0_0_197
*311 FILLER_0_0_209
*312 FILLER_0_0_221
*313 FILLER_0_0_225
*314 FILLER_0_0_237
*315 FILLER_0_0_249
*316 FILLER_0_0_253
*317 FILLER_0_0_265
*318 FILLER_0_0_269
*319 FILLER_0_0_27
*320 FILLER_0_0_277
*321 FILLER_0_0_281
*322 FILLER_0_0_29
*323 FILLER_0_0_293
*324 FILLER_0_0_297
*325 FILLER_0_0_3
*326 FILLER_0_0_305
*327 FILLER_0_0_309
*328 FILLER_0_0_321
*329 FILLER_0_0_333
*330 FILLER_0_0_337
*331 FILLER_0_0_349
*332 FILLER_0_0_361
*333 FILLER_0_0_365
*334 FILLER_0_0_377
*335 FILLER_0_0_389
*336 FILLER_0_0_393
*337 FILLER_0_0_405
*338 FILLER_0_0_41
*339 FILLER_0_0_412
*340 FILLER_0_0_421
*341 FILLER_0_0_433
*342 FILLER_0_0_445
*343 FILLER_0_0_449
*344 FILLER_0_0_461
*345 FILLER_0_0_473
*346 FILLER_0_0_477
*347 FILLER_0_0_489
*348 FILLER_0_0_500
*349 FILLER_0_0_505
*350 FILLER_0_0_517
*351 FILLER_0_0_528
*352 FILLER_0_0_53
*353 FILLER_0_0_533
*354 FILLER_0_0_545
*355 FILLER_0_0_557
*356 FILLER_0_0_561
*357 FILLER_0_0_57
*358 FILLER_0_0_573
*359 FILLER_0_0_585
*360 FILLER_0_0_589
*361 FILLER_0_0_601
*362 FILLER_0_0_613
*363 FILLER_0_0_617
*364 FILLER_0_0_629
*365 FILLER_0_0_640
*366 FILLER_0_0_645
*367 FILLER_0_0_657
*368 FILLER_0_0_668
*369 FILLER_0_0_673
*370 FILLER_0_0_685
*371 FILLER_0_0_69
*372 FILLER_0_0_697
*373 FILLER_0_0_701
*374 FILLER_0_0_713
*375 FILLER_0_0_725
*376 FILLER_0_0_729
*377 FILLER_0_0_741
*378 FILLER_0_0_753
*379 FILLER_0_0_757
*380 FILLER_0_0_769
*381 FILLER_0_0_781
*382 FILLER_0_0_791
*383 FILLER_0_0_803
*384 FILLER_0_0_81
*385 FILLER_0_0_811
*386 FILLER_0_0_813
*387 FILLER_0_0_825
*388 FILLER_0_0_837
*389 FILLER_0_0_847
*390 FILLER_0_0_85
*391 FILLER_0_0_859
*392 FILLER_0_0_867
*393 FILLER_0_0_869
*394 FILLER_0_0_881
*395 FILLER_0_0_893
*396 FILLER_0_0_897
*397 FILLER_0_0_909
*398 FILLER_0_0_921
*399 FILLER_0_0_929
*400 FILLER_0_0_941
*401 FILLER_0_0_949
*402 FILLER_0_0_953
*403 FILLER_0_0_965
*404 FILLER_0_0_97
*405 FILLER_0_0_977
*406 FILLER_0_0_987
*407 FILLER_0_0_999
*408 FILLER_0_100_1005
*409 FILLER_0_100_1017
*410 FILLER_0_100_1029
*411 FILLER_0_100_1035
*412 FILLER_0_100_1037
*413 FILLER_0_100_1049
*414 FILLER_0_100_1061
*415 FILLER_0_100_1073
*416 FILLER_0_100_1085
*417 FILLER_0_100_109
*418 FILLER_0_100_1091
*419 FILLER_0_100_1093
*420 FILLER_0_100_1105
*421 FILLER_0_100_1117
*422 FILLER_0_100_1129
*423 FILLER_0_100_1141
*424 FILLER_0_100_1147
*425 FILLER_0_100_1149
*426 FILLER_0_100_1161
*427 FILLER_0_100_1173
*428 FILLER_0_100_1185
*429 FILLER_0_100_1197
*430 FILLER_0_100_1203
*431 FILLER_0_100_1205
*432 FILLER_0_100_121
*433 FILLER_0_100_1217
*434 FILLER_0_100_1229
*435 FILLER_0_100_1241
*436 FILLER_0_100_1253
*437 FILLER_0_100_133
*438 FILLER_0_100_139
*439 FILLER_0_100_141
*440 FILLER_0_100_15
*441 FILLER_0_100_153
*442 FILLER_0_100_165
*443 FILLER_0_100_177
*444 FILLER_0_100_189
*445 FILLER_0_100_195
*446 FILLER_0_100_197
*447 FILLER_0_100_209
*448 FILLER_0_100_221
*449 FILLER_0_100_233
*450 FILLER_0_100_245
*451 FILLER_0_100_251
*452 FILLER_0_100_253
*453 FILLER_0_100_265
*454 FILLER_0_100_27
*455 FILLER_0_100_277
*456 FILLER_0_100_289
*457 FILLER_0_100_29
*458 FILLER_0_100_3
*459 FILLER_0_100_301
*460 FILLER_0_100_307
*461 FILLER_0_100_309
*462 FILLER_0_100_321
*463 FILLER_0_100_333
*464 FILLER_0_100_345
*465 FILLER_0_100_357
*466 FILLER_0_100_363
*467 FILLER_0_100_365
*468 FILLER_0_100_377
*469 FILLER_0_100_389
*470 FILLER_0_100_401
*471 FILLER_0_100_41
*472 FILLER_0_100_413
*473 FILLER_0_100_419
*474 FILLER_0_100_421
*475 FILLER_0_100_433
*476 FILLER_0_100_445
*477 FILLER_0_100_457
*478 FILLER_0_100_469
*479 FILLER_0_100_475
*480 FILLER_0_100_477
*481 FILLER_0_100_489
*482 FILLER_0_100_501
*483 FILLER_0_100_513
*484 FILLER_0_100_525
*485 FILLER_0_100_53
*486 FILLER_0_100_531
*487 FILLER_0_100_533
*488 FILLER_0_100_545
*489 FILLER_0_100_557
*490 FILLER_0_100_569
*491 FILLER_0_100_581
*492 FILLER_0_100_587
*493 FILLER_0_100_589
*494 FILLER_0_100_601
*495 FILLER_0_100_613
*496 FILLER_0_100_625
*497 FILLER_0_100_637
*498 FILLER_0_100_643
*499 FILLER_0_100_645
*500 FILLER_0_100_65
*501 FILLER_0_100_657
*502 FILLER_0_100_669
*503 FILLER_0_100_681
*504 FILLER_0_100_693
*505 FILLER_0_100_699
*506 FILLER_0_100_701
*507 FILLER_0_100_713
*508 FILLER_0_100_725
*509 FILLER_0_100_737
*510 FILLER_0_100_749
*511 FILLER_0_100_755
*512 FILLER_0_100_757
*513 FILLER_0_100_769
*514 FILLER_0_100_77
*515 FILLER_0_100_781
*516 FILLER_0_100_793
*517 FILLER_0_100_805
*518 FILLER_0_100_811
*519 FILLER_0_100_813
*520 FILLER_0_100_825
*521 FILLER_0_100_83
*522 FILLER_0_100_837
*523 FILLER_0_100_849
*524 FILLER_0_100_85
*525 FILLER_0_100_861
*526 FILLER_0_100_867
*527 FILLER_0_100_869
*528 FILLER_0_100_881
*529 FILLER_0_100_893
*530 FILLER_0_100_905
*531 FILLER_0_100_917
*532 FILLER_0_100_923
*533 FILLER_0_100_925
*534 FILLER_0_100_937
*535 FILLER_0_100_949
*536 FILLER_0_100_961
*537 FILLER_0_100_97
*538 FILLER_0_100_973
*539 FILLER_0_100_979
*540 FILLER_0_100_981
*541 FILLER_0_100_993
*542 FILLER_0_101_1001
*543 FILLER_0_101_1007
*544 FILLER_0_101_1009
*545 FILLER_0_101_1021
*546 FILLER_0_101_1033
*547 FILLER_0_101_1045
*548 FILLER_0_101_105
*549 FILLER_0_101_1057
*550 FILLER_0_101_1063
*551 FILLER_0_101_1065
*552 FILLER_0_101_1077
*553 FILLER_0_101_1089
*554 FILLER_0_101_1101
*555 FILLER_0_101_111
*556 FILLER_0_101_1113
*557 FILLER_0_101_1119
*558 FILLER_0_101_1121
*559 FILLER_0_101_113
*560 FILLER_0_101_1133
*561 FILLER_0_101_1145
*562 FILLER_0_101_1157
*563 FILLER_0_101_1169
*564 FILLER_0_101_1175
*565 FILLER_0_101_1177
*566 FILLER_0_101_1189
*567 FILLER_0_101_1201
*568 FILLER_0_101_1213
*569 FILLER_0_101_1225
*570 FILLER_0_101_1231
*571 FILLER_0_101_1233
*572 FILLER_0_101_1245
*573 FILLER_0_101_125
*574 FILLER_0_101_137
*575 FILLER_0_101_149
*576 FILLER_0_101_15
*577 FILLER_0_101_161
*578 FILLER_0_101_167
*579 FILLER_0_101_169
*580 FILLER_0_101_181
*581 FILLER_0_101_193
*582 FILLER_0_101_205
*583 FILLER_0_101_217
*584 FILLER_0_101_223
*585 FILLER_0_101_225
*586 FILLER_0_101_237
*587 FILLER_0_101_249
*588 FILLER_0_101_261
*589 FILLER_0_101_27
*590 FILLER_0_101_273
*591 FILLER_0_101_279
*592 FILLER_0_101_281
*593 FILLER_0_101_293
*594 FILLER_0_101_3
*595 FILLER_0_101_305
*596 FILLER_0_101_317
*597 FILLER_0_101_329
*598 FILLER_0_101_335
*599 FILLER_0_101_337
*600 FILLER_0_101_349
*601 FILLER_0_101_361
*602 FILLER_0_101_373
*603 FILLER_0_101_385
*604 FILLER_0_101_39
*605 FILLER_0_101_391
*606 FILLER_0_101_393
*607 FILLER_0_101_405
*608 FILLER_0_101_417
*609 FILLER_0_101_429
*610 FILLER_0_101_441
*611 FILLER_0_101_447
*612 FILLER_0_101_449
*613 FILLER_0_101_461
*614 FILLER_0_101_473
*615 FILLER_0_101_485
*616 FILLER_0_101_497
*617 FILLER_0_101_503
*618 FILLER_0_101_505
*619 FILLER_0_101_51
*620 FILLER_0_101_517
*621 FILLER_0_101_529
*622 FILLER_0_101_541
*623 FILLER_0_101_55
*624 FILLER_0_101_553
*625 FILLER_0_101_559
*626 FILLER_0_101_561
*627 FILLER_0_101_57
*628 FILLER_0_101_573
*629 FILLER_0_101_585
*630 FILLER_0_101_597
*631 FILLER_0_101_609
*632 FILLER_0_101_615
*633 FILLER_0_101_617
*634 FILLER_0_101_629
*635 FILLER_0_101_641
*636 FILLER_0_101_653
*637 FILLER_0_101_665
*638 FILLER_0_101_671
*639 FILLER_0_101_673
*640 FILLER_0_101_685
*641 FILLER_0_101_69
*642 FILLER_0_101_697
*643 FILLER_0_101_709
*644 FILLER_0_101_721
*645 FILLER_0_101_727
*646 FILLER_0_101_729
*647 FILLER_0_101_741
*648 FILLER_0_101_753
*649 FILLER_0_101_765
*650 FILLER_0_101_777
*651 FILLER_0_101_783
*652 FILLER_0_101_785
*653 FILLER_0_101_797
*654 FILLER_0_101_809
*655 FILLER_0_101_81
*656 FILLER_0_101_821
*657 FILLER_0_101_833
*658 FILLER_0_101_839
*659 FILLER_0_101_841
*660 FILLER_0_101_853
*661 FILLER_0_101_865
*662 FILLER_0_101_877
*663 FILLER_0_101_889
*664 FILLER_0_101_895
*665 FILLER_0_101_897
*666 FILLER_0_101_909
*667 FILLER_0_101_921
*668 FILLER_0_101_93
*669 FILLER_0_101_933
*670 FILLER_0_101_945
*671 FILLER_0_101_951
*672 FILLER_0_101_953
*673 FILLER_0_101_965
*674 FILLER_0_101_977
*675 FILLER_0_101_989
*676 FILLER_0_102_1005
*677 FILLER_0_102_1017
*678 FILLER_0_102_1029
*679 FILLER_0_102_1035
*680 FILLER_0_102_1037
*681 FILLER_0_102_1049
*682 FILLER_0_102_1061
*683 FILLER_0_102_1073
*684 FILLER_0_102_1085
*685 FILLER_0_102_109
*686 FILLER_0_102_1091
*687 FILLER_0_102_1093
*688 FILLER_0_102_1105
*689 FILLER_0_102_1117
*690 FILLER_0_102_1129
*691 FILLER_0_102_1141
*692 FILLER_0_102_1147
*693 FILLER_0_102_1149
*694 FILLER_0_102_1161
*695 FILLER_0_102_1173
*696 FILLER_0_102_1185
*697 FILLER_0_102_1197
*698 FILLER_0_102_1203
*699 FILLER_0_102_1205
*700 FILLER_0_102_121
*701 FILLER_0_102_1217
*702 FILLER_0_102_1229
*703 FILLER_0_102_1241
*704 FILLER_0_102_1253
*705 FILLER_0_102_133
*706 FILLER_0_102_139
*707 FILLER_0_102_141
*708 FILLER_0_102_15
*709 FILLER_0_102_153
*710 FILLER_0_102_165
*711 FILLER_0_102_177
*712 FILLER_0_102_189
*713 FILLER_0_102_195
*714 FILLER_0_102_197
*715 FILLER_0_102_209
*716 FILLER_0_102_221
*717 FILLER_0_102_233
*718 FILLER_0_102_245
*719 FILLER_0_102_251
*720 FILLER_0_102_253
*721 FILLER_0_102_265
*722 FILLER_0_102_27
*723 FILLER_0_102_277
*724 FILLER_0_102_289
*725 FILLER_0_102_29
*726 FILLER_0_102_3
*727 FILLER_0_102_301
*728 FILLER_0_102_307
*729 FILLER_0_102_309
*730 FILLER_0_102_321
*731 FILLER_0_102_333
*732 FILLER_0_102_345
*733 FILLER_0_102_357
*734 FILLER_0_102_363
*735 FILLER_0_102_365
*736 FILLER_0_102_377
*737 FILLER_0_102_389
*738 FILLER_0_102_401
*739 FILLER_0_102_41
*740 FILLER_0_102_413
*741 FILLER_0_102_419
*742 FILLER_0_102_421
*743 FILLER_0_102_433
*744 FILLER_0_102_445
*745 FILLER_0_102_457
*746 FILLER_0_102_469
*747 FILLER_0_102_475
*748 FILLER_0_102_477
*749 FILLER_0_102_489
*750 FILLER_0_102_501
*751 FILLER_0_102_513
*752 FILLER_0_102_525
*753 FILLER_0_102_53
*754 FILLER_0_102_531
*755 FILLER_0_102_533
*756 FILLER_0_102_545
*757 FILLER_0_102_557
*758 FILLER_0_102_569
*759 FILLER_0_102_581
*760 FILLER_0_102_587
*761 FILLER_0_102_589
*762 FILLER_0_102_601
*763 FILLER_0_102_613
*764 FILLER_0_102_625
*765 FILLER_0_102_637
*766 FILLER_0_102_643
*767 FILLER_0_102_645
*768 FILLER_0_102_65
*769 FILLER_0_102_657
*770 FILLER_0_102_669
*771 FILLER_0_102_681
*772 FILLER_0_102_693
*773 FILLER_0_102_699
*774 FILLER_0_102_701
*775 FILLER_0_102_713
*776 FILLER_0_102_725
*777 FILLER_0_102_737
*778 FILLER_0_102_749
*779 FILLER_0_102_755
*780 FILLER_0_102_757
*781 FILLER_0_102_769
*782 FILLER_0_102_77
*783 FILLER_0_102_781
*784 FILLER_0_102_793
*785 FILLER_0_102_805
*786 FILLER_0_102_811
*787 FILLER_0_102_813
*788 FILLER_0_102_825
*789 FILLER_0_102_83
*790 FILLER_0_102_837
*791 FILLER_0_102_849
*792 FILLER_0_102_85
*793 FILLER_0_102_861
*794 FILLER_0_102_867
*795 FILLER_0_102_869
*796 FILLER_0_102_881
*797 FILLER_0_102_893
*798 FILLER_0_102_905
*799 FILLER_0_102_917
*800 FILLER_0_102_923
*801 FILLER_0_102_925
*802 FILLER_0_102_937
*803 FILLER_0_102_949
*804 FILLER_0_102_961
*805 FILLER_0_102_97
*806 FILLER_0_102_973
*807 FILLER_0_102_979
*808 FILLER_0_102_981
*809 FILLER_0_102_993
*810 FILLER_0_103_1001
*811 FILLER_0_103_1007
*812 FILLER_0_103_1009
*813 FILLER_0_103_1021
*814 FILLER_0_103_1033
*815 FILLER_0_103_1045
*816 FILLER_0_103_105
*817 FILLER_0_103_1057
*818 FILLER_0_103_1063
*819 FILLER_0_103_1065
*820 FILLER_0_103_1077
*821 FILLER_0_103_1089
*822 FILLER_0_103_1101
*823 FILLER_0_103_111
*824 FILLER_0_103_1113
*825 FILLER_0_103_1119
*826 FILLER_0_103_1121
*827 FILLER_0_103_113
*828 FILLER_0_103_1133
*829 FILLER_0_103_1145
*830 FILLER_0_103_1157
*831 FILLER_0_103_1169
*832 FILLER_0_103_1175
*833 FILLER_0_103_1177
*834 FILLER_0_103_1189
*835 FILLER_0_103_1201
*836 FILLER_0_103_1213
*837 FILLER_0_103_1225
*838 FILLER_0_103_1231
*839 FILLER_0_103_1233
*840 FILLER_0_103_1245
*841 FILLER_0_103_125
*842 FILLER_0_103_137
*843 FILLER_0_103_149
*844 FILLER_0_103_15
*845 FILLER_0_103_161
*846 FILLER_0_103_167
*847 FILLER_0_103_169
*848 FILLER_0_103_181
*849 FILLER_0_103_193
*850 FILLER_0_103_205
*851 FILLER_0_103_217
*852 FILLER_0_103_223
*853 FILLER_0_103_225
*854 FILLER_0_103_237
*855 FILLER_0_103_249
*856 FILLER_0_103_261
*857 FILLER_0_103_27
*858 FILLER_0_103_273
*859 FILLER_0_103_279
*860 FILLER_0_103_281
*861 FILLER_0_103_293
*862 FILLER_0_103_3
*863 FILLER_0_103_305
*864 FILLER_0_103_317
*865 FILLER_0_103_329
*866 FILLER_0_103_335
*867 FILLER_0_103_337
*868 FILLER_0_103_349
*869 FILLER_0_103_361
*870 FILLER_0_103_373
*871 FILLER_0_103_385
*872 FILLER_0_103_39
*873 FILLER_0_103_391
*874 FILLER_0_103_393
*875 FILLER_0_103_405
*876 FILLER_0_103_417
*877 FILLER_0_103_429
*878 FILLER_0_103_441
*879 FILLER_0_103_447
*880 FILLER_0_103_449
*881 FILLER_0_103_461
*882 FILLER_0_103_473
*883 FILLER_0_103_485
*884 FILLER_0_103_497
*885 FILLER_0_103_503
*886 FILLER_0_103_505
*887 FILLER_0_103_51
*888 FILLER_0_103_517
*889 FILLER_0_103_529
*890 FILLER_0_103_541
*891 FILLER_0_103_55
*892 FILLER_0_103_553
*893 FILLER_0_103_559
*894 FILLER_0_103_561
*895 FILLER_0_103_57
*896 FILLER_0_103_573
*897 FILLER_0_103_585
*898 FILLER_0_103_597
*899 FILLER_0_103_609
*900 FILLER_0_103_615
*901 FILLER_0_103_617
*902 FILLER_0_103_629
*903 FILLER_0_103_641
*904 FILLER_0_103_653
*905 FILLER_0_103_665
*906 FILLER_0_103_671
*907 FILLER_0_103_673
*908 FILLER_0_103_685
*909 FILLER_0_103_69
*910 FILLER_0_103_697
*911 FILLER_0_103_709
*912 FILLER_0_103_721
*913 FILLER_0_103_727
*914 FILLER_0_103_729
*915 FILLER_0_103_741
*916 FILLER_0_103_753
*917 FILLER_0_103_765
*918 FILLER_0_103_777
*919 FILLER_0_103_783
*920 FILLER_0_103_785
*921 FILLER_0_103_797
*922 FILLER_0_103_809
*923 FILLER_0_103_81
*924 FILLER_0_103_821
*925 FILLER_0_103_833
*926 FILLER_0_103_839
*927 FILLER_0_103_841
*928 FILLER_0_103_853
*929 FILLER_0_103_865
*930 FILLER_0_103_877
*931 FILLER_0_103_889
*932 FILLER_0_103_895
*933 FILLER_0_103_897
*934 FILLER_0_103_909
*935 FILLER_0_103_921
*936 FILLER_0_103_93
*937 FILLER_0_103_933
*938 FILLER_0_103_945
*939 FILLER_0_103_951
*940 FILLER_0_103_953
*941 FILLER_0_103_965
*942 FILLER_0_103_977
*943 FILLER_0_103_989
*944 FILLER_0_104_1005
*945 FILLER_0_104_1017
*946 FILLER_0_104_1029
*947 FILLER_0_104_1035
*948 FILLER_0_104_1037
*949 FILLER_0_104_1049
*950 FILLER_0_104_1061
*951 FILLER_0_104_1073
*952 FILLER_0_104_1085
*953 FILLER_0_104_109
*954 FILLER_0_104_1091
*955 FILLER_0_104_1093
*956 FILLER_0_104_1105
*957 FILLER_0_104_1117
*958 FILLER_0_104_1129
*959 FILLER_0_104_1141
*960 FILLER_0_104_1147
*961 FILLER_0_104_1149
*962 FILLER_0_104_1161
*963 FILLER_0_104_1173
*964 FILLER_0_104_1185
*965 FILLER_0_104_1197
*966 FILLER_0_104_1203
*967 FILLER_0_104_1205
*968 FILLER_0_104_121
*969 FILLER_0_104_1217
*970 FILLER_0_104_1229
*971 FILLER_0_104_1241
*972 FILLER_0_104_1253
*973 FILLER_0_104_133
*974 FILLER_0_104_139
*975 FILLER_0_104_141
*976 FILLER_0_104_15
*977 FILLER_0_104_153
*978 FILLER_0_104_165
*979 FILLER_0_104_177
*980 FILLER_0_104_189
*981 FILLER_0_104_195
*982 FILLER_0_104_197
*983 FILLER_0_104_209
*984 FILLER_0_104_221
*985 FILLER_0_104_233
*986 FILLER_0_104_245
*987 FILLER_0_104_251
*988 FILLER_0_104_253
*989 FILLER_0_104_265
*990 FILLER_0_104_27
*991 FILLER_0_104_277
*992 FILLER_0_104_289
*993 FILLER_0_104_29
*994 FILLER_0_104_3
*995 FILLER_0_104_301
*996 FILLER_0_104_307
*997 FILLER_0_104_309
*998 FILLER_0_104_321
*999 FILLER_0_104_333
*1000 FILLER_0_104_345
*1001 FILLER_0_104_357
*1002 FILLER_0_104_363
*1003 FILLER_0_104_365
*1004 FILLER_0_104_377
*1005 FILLER_0_104_389
*1006 FILLER_0_104_401
*1007 FILLER_0_104_41
*1008 FILLER_0_104_413
*1009 FILLER_0_104_419
*1010 FILLER_0_104_421
*1011 FILLER_0_104_433
*1012 FILLER_0_104_445
*1013 FILLER_0_104_457
*1014 FILLER_0_104_469
*1015 FILLER_0_104_475
*1016 FILLER_0_104_477
*1017 FILLER_0_104_489
*1018 FILLER_0_104_501
*1019 FILLER_0_104_513
*1020 FILLER_0_104_525
*1021 FILLER_0_104_53
*1022 FILLER_0_104_531
*1023 FILLER_0_104_533
*1024 FILLER_0_104_545
*1025 FILLER_0_104_557
*1026 FILLER_0_104_569
*1027 FILLER_0_104_581
*1028 FILLER_0_104_587
*1029 FILLER_0_104_589
*1030 FILLER_0_104_601
*1031 FILLER_0_104_613
*1032 FILLER_0_104_625
*1033 FILLER_0_104_637
*1034 FILLER_0_104_643
*1035 FILLER_0_104_645
*1036 FILLER_0_104_65
*1037 FILLER_0_104_657
*1038 FILLER_0_104_669
*1039 FILLER_0_104_681
*1040 FILLER_0_104_693
*1041 FILLER_0_104_699
*1042 FILLER_0_104_701
*1043 FILLER_0_104_713
*1044 FILLER_0_104_725
*1045 FILLER_0_104_737
*1046 FILLER_0_104_749
*1047 FILLER_0_104_755
*1048 FILLER_0_104_757
*1049 FILLER_0_104_769
*1050 FILLER_0_104_77
*1051 FILLER_0_104_781
*1052 FILLER_0_104_793
*1053 FILLER_0_104_805
*1054 FILLER_0_104_811
*1055 FILLER_0_104_813
*1056 FILLER_0_104_825
*1057 FILLER_0_104_83
*1058 FILLER_0_104_837
*1059 FILLER_0_104_849
*1060 FILLER_0_104_85
*1061 FILLER_0_104_861
*1062 FILLER_0_104_867
*1063 FILLER_0_104_869
*1064 FILLER_0_104_881
*1065 FILLER_0_104_893
*1066 FILLER_0_104_905
*1067 FILLER_0_104_917
*1068 FILLER_0_104_923
*1069 FILLER_0_104_925
*1070 FILLER_0_104_937
*1071 FILLER_0_104_949
*1072 FILLER_0_104_961
*1073 FILLER_0_104_97
*1074 FILLER_0_104_973
*1075 FILLER_0_104_979
*1076 FILLER_0_104_981
*1077 FILLER_0_104_993
*1078 FILLER_0_105_1001
*1079 FILLER_0_105_1007
*1080 FILLER_0_105_1009
*1081 FILLER_0_105_1021
*1082 FILLER_0_105_1033
*1083 FILLER_0_105_1045
*1084 FILLER_0_105_105
*1085 FILLER_0_105_1057
*1086 FILLER_0_105_1063
*1087 FILLER_0_105_1065
*1088 FILLER_0_105_1077
*1089 FILLER_0_105_1089
*1090 FILLER_0_105_1101
*1091 FILLER_0_105_111
*1092 FILLER_0_105_1113
*1093 FILLER_0_105_1119
*1094 FILLER_0_105_1121
*1095 FILLER_0_105_113
*1096 FILLER_0_105_1133
*1097 FILLER_0_105_1145
*1098 FILLER_0_105_1157
*1099 FILLER_0_105_1169
*1100 FILLER_0_105_1175
*1101 FILLER_0_105_1177
*1102 FILLER_0_105_1189
*1103 FILLER_0_105_1201
*1104 FILLER_0_105_1213
*1105 FILLER_0_105_1225
*1106 FILLER_0_105_1231
*1107 FILLER_0_105_1233
*1108 FILLER_0_105_1245
*1109 FILLER_0_105_125
*1110 FILLER_0_105_137
*1111 FILLER_0_105_149
*1112 FILLER_0_105_15
*1113 FILLER_0_105_161
*1114 FILLER_0_105_167
*1115 FILLER_0_105_169
*1116 FILLER_0_105_181
*1117 FILLER_0_105_193
*1118 FILLER_0_105_205
*1119 FILLER_0_105_217
*1120 FILLER_0_105_223
*1121 FILLER_0_105_225
*1122 FILLER_0_105_237
*1123 FILLER_0_105_249
*1124 FILLER_0_105_261
*1125 FILLER_0_105_27
*1126 FILLER_0_105_273
*1127 FILLER_0_105_279
*1128 FILLER_0_105_281
*1129 FILLER_0_105_293
*1130 FILLER_0_105_3
*1131 FILLER_0_105_305
*1132 FILLER_0_105_317
*1133 FILLER_0_105_329
*1134 FILLER_0_105_335
*1135 FILLER_0_105_337
*1136 FILLER_0_105_349
*1137 FILLER_0_105_361
*1138 FILLER_0_105_373
*1139 FILLER_0_105_385
*1140 FILLER_0_105_39
*1141 FILLER_0_105_391
*1142 FILLER_0_105_393
*1143 FILLER_0_105_405
*1144 FILLER_0_105_417
*1145 FILLER_0_105_429
*1146 FILLER_0_105_441
*1147 FILLER_0_105_447
*1148 FILLER_0_105_449
*1149 FILLER_0_105_461
*1150 FILLER_0_105_473
*1151 FILLER_0_105_485
*1152 FILLER_0_105_497
*1153 FILLER_0_105_503
*1154 FILLER_0_105_505
*1155 FILLER_0_105_51
*1156 FILLER_0_105_517
*1157 FILLER_0_105_529
*1158 FILLER_0_105_541
*1159 FILLER_0_105_55
*1160 FILLER_0_105_553
*1161 FILLER_0_105_559
*1162 FILLER_0_105_561
*1163 FILLER_0_105_57
*1164 FILLER_0_105_573
*1165 FILLER_0_105_585
*1166 FILLER_0_105_597
*1167 FILLER_0_105_609
*1168 FILLER_0_105_615
*1169 FILLER_0_105_617
*1170 FILLER_0_105_629
*1171 FILLER_0_105_641
*1172 FILLER_0_105_653
*1173 FILLER_0_105_665
*1174 FILLER_0_105_671
*1175 FILLER_0_105_673
*1176 FILLER_0_105_685
*1177 FILLER_0_105_69
*1178 FILLER_0_105_697
*1179 FILLER_0_105_709
*1180 FILLER_0_105_721
*1181 FILLER_0_105_727
*1182 FILLER_0_105_729
*1183 FILLER_0_105_741
*1184 FILLER_0_105_753
*1185 FILLER_0_105_765
*1186 FILLER_0_105_777
*1187 FILLER_0_105_783
*1188 FILLER_0_105_785
*1189 FILLER_0_105_797
*1190 FILLER_0_105_809
*1191 FILLER_0_105_81
*1192 FILLER_0_105_821
*1193 FILLER_0_105_833
*1194 FILLER_0_105_839
*1195 FILLER_0_105_841
*1196 FILLER_0_105_853
*1197 FILLER_0_105_865
*1198 FILLER_0_105_877
*1199 FILLER_0_105_889
*1200 FILLER_0_105_895
*1201 FILLER_0_105_897
*1202 FILLER_0_105_909
*1203 FILLER_0_105_921
*1204 FILLER_0_105_93
*1205 FILLER_0_105_933
*1206 FILLER_0_105_945
*1207 FILLER_0_105_951
*1208 FILLER_0_105_953
*1209 FILLER_0_105_965
*1210 FILLER_0_105_977
*1211 FILLER_0_105_989
*1212 FILLER_0_106_1005
*1213 FILLER_0_106_1017
*1214 FILLER_0_106_1029
*1215 FILLER_0_106_1035
*1216 FILLER_0_106_1037
*1217 FILLER_0_106_1049
*1218 FILLER_0_106_1061
*1219 FILLER_0_106_1073
*1220 FILLER_0_106_1085
*1221 FILLER_0_106_109
*1222 FILLER_0_106_1091
*1223 FILLER_0_106_1093
*1224 FILLER_0_106_1105
*1225 FILLER_0_106_1117
*1226 FILLER_0_106_1129
*1227 FILLER_0_106_1141
*1228 FILLER_0_106_1147
*1229 FILLER_0_106_1149
*1230 FILLER_0_106_1161
*1231 FILLER_0_106_1173
*1232 FILLER_0_106_1185
*1233 FILLER_0_106_1197
*1234 FILLER_0_106_1203
*1235 FILLER_0_106_1205
*1236 FILLER_0_106_121
*1237 FILLER_0_106_1217
*1238 FILLER_0_106_1229
*1239 FILLER_0_106_1241
*1240 FILLER_0_106_1253
*1241 FILLER_0_106_133
*1242 FILLER_0_106_139
*1243 FILLER_0_106_141
*1244 FILLER_0_106_15
*1245 FILLER_0_106_153
*1246 FILLER_0_106_165
*1247 FILLER_0_106_177
*1248 FILLER_0_106_189
*1249 FILLER_0_106_195
*1250 FILLER_0_106_197
*1251 FILLER_0_106_209
*1252 FILLER_0_106_221
*1253 FILLER_0_106_233
*1254 FILLER_0_106_245
*1255 FILLER_0_106_251
*1256 FILLER_0_106_253
*1257 FILLER_0_106_265
*1258 FILLER_0_106_27
*1259 FILLER_0_106_277
*1260 FILLER_0_106_289
*1261 FILLER_0_106_29
*1262 FILLER_0_106_3
*1263 FILLER_0_106_301
*1264 FILLER_0_106_307
*1265 FILLER_0_106_309
*1266 FILLER_0_106_321
*1267 FILLER_0_106_333
*1268 FILLER_0_106_345
*1269 FILLER_0_106_357
*1270 FILLER_0_106_363
*1271 FILLER_0_106_365
*1272 FILLER_0_106_377
*1273 FILLER_0_106_389
*1274 FILLER_0_106_401
*1275 FILLER_0_106_41
*1276 FILLER_0_106_413
*1277 FILLER_0_106_419
*1278 FILLER_0_106_421
*1279 FILLER_0_106_433
*1280 FILLER_0_106_445
*1281 FILLER_0_106_457
*1282 FILLER_0_106_469
*1283 FILLER_0_106_475
*1284 FILLER_0_106_477
*1285 FILLER_0_106_489
*1286 FILLER_0_106_501
*1287 FILLER_0_106_513
*1288 FILLER_0_106_525
*1289 FILLER_0_106_53
*1290 FILLER_0_106_531
*1291 FILLER_0_106_533
*1292 FILLER_0_106_545
*1293 FILLER_0_106_557
*1294 FILLER_0_106_569
*1295 FILLER_0_106_581
*1296 FILLER_0_106_587
*1297 FILLER_0_106_589
*1298 FILLER_0_106_601
*1299 FILLER_0_106_613
*1300 FILLER_0_106_625
*1301 FILLER_0_106_637
*1302 FILLER_0_106_643
*1303 FILLER_0_106_645
*1304 FILLER_0_106_65
*1305 FILLER_0_106_657
*1306 FILLER_0_106_669
*1307 FILLER_0_106_681
*1308 FILLER_0_106_693
*1309 FILLER_0_106_699
*1310 FILLER_0_106_701
*1311 FILLER_0_106_713
*1312 FILLER_0_106_725
*1313 FILLER_0_106_737
*1314 FILLER_0_106_749
*1315 FILLER_0_106_755
*1316 FILLER_0_106_757
*1317 FILLER_0_106_769
*1318 FILLER_0_106_77
*1319 FILLER_0_106_781
*1320 FILLER_0_106_793
*1321 FILLER_0_106_805
*1322 FILLER_0_106_811
*1323 FILLER_0_106_813
*1324 FILLER_0_106_825
*1325 FILLER_0_106_83
*1326 FILLER_0_106_837
*1327 FILLER_0_106_849
*1328 FILLER_0_106_85
*1329 FILLER_0_106_861
*1330 FILLER_0_106_867
*1331 FILLER_0_106_869
*1332 FILLER_0_106_881
*1333 FILLER_0_106_893
*1334 FILLER_0_106_905
*1335 FILLER_0_106_917
*1336 FILLER_0_106_923
*1337 FILLER_0_106_925
*1338 FILLER_0_106_937
*1339 FILLER_0_106_949
*1340 FILLER_0_106_961
*1341 FILLER_0_106_97
*1342 FILLER_0_106_973
*1343 FILLER_0_106_979
*1344 FILLER_0_106_981
*1345 FILLER_0_106_993
*1346 FILLER_0_107_1001
*1347 FILLER_0_107_1007
*1348 FILLER_0_107_1009
*1349 FILLER_0_107_1021
*1350 FILLER_0_107_1033
*1351 FILLER_0_107_1045
*1352 FILLER_0_107_105
*1353 FILLER_0_107_1057
*1354 FILLER_0_107_1063
*1355 FILLER_0_107_1065
*1356 FILLER_0_107_1077
*1357 FILLER_0_107_1089
*1358 FILLER_0_107_1101
*1359 FILLER_0_107_111
*1360 FILLER_0_107_1113
*1361 FILLER_0_107_1119
*1362 FILLER_0_107_1121
*1363 FILLER_0_107_113
*1364 FILLER_0_107_1133
*1365 FILLER_0_107_1145
*1366 FILLER_0_107_1157
*1367 FILLER_0_107_1169
*1368 FILLER_0_107_1175
*1369 FILLER_0_107_1177
*1370 FILLER_0_107_1189
*1371 FILLER_0_107_1201
*1372 FILLER_0_107_1213
*1373 FILLER_0_107_1225
*1374 FILLER_0_107_1231
*1375 FILLER_0_107_1233
*1376 FILLER_0_107_1245
*1377 FILLER_0_107_125
*1378 FILLER_0_107_137
*1379 FILLER_0_107_149
*1380 FILLER_0_107_15
*1381 FILLER_0_107_161
*1382 FILLER_0_107_167
*1383 FILLER_0_107_169
*1384 FILLER_0_107_181
*1385 FILLER_0_107_193
*1386 FILLER_0_107_205
*1387 FILLER_0_107_217
*1388 FILLER_0_107_223
*1389 FILLER_0_107_225
*1390 FILLER_0_107_237
*1391 FILLER_0_107_249
*1392 FILLER_0_107_261
*1393 FILLER_0_107_27
*1394 FILLER_0_107_273
*1395 FILLER_0_107_279
*1396 FILLER_0_107_281
*1397 FILLER_0_107_293
*1398 FILLER_0_107_3
*1399 FILLER_0_107_305
*1400 FILLER_0_107_317
*1401 FILLER_0_107_329
*1402 FILLER_0_107_335
*1403 FILLER_0_107_337
*1404 FILLER_0_107_349
*1405 FILLER_0_107_361
*1406 FILLER_0_107_373
*1407 FILLER_0_107_385
*1408 FILLER_0_107_39
*1409 FILLER_0_107_391
*1410 FILLER_0_107_393
*1411 FILLER_0_107_405
*1412 FILLER_0_107_417
*1413 FILLER_0_107_429
*1414 FILLER_0_107_441
*1415 FILLER_0_107_447
*1416 FILLER_0_107_449
*1417 FILLER_0_107_461
*1418 FILLER_0_107_473
*1419 FILLER_0_107_485
*1420 FILLER_0_107_497
*1421 FILLER_0_107_503
*1422 FILLER_0_107_505
*1423 FILLER_0_107_51
*1424 FILLER_0_107_517
*1425 FILLER_0_107_529
*1426 FILLER_0_107_541
*1427 FILLER_0_107_55
*1428 FILLER_0_107_553
*1429 FILLER_0_107_559
*1430 FILLER_0_107_561
*1431 FILLER_0_107_57
*1432 FILLER_0_107_573
*1433 FILLER_0_107_585
*1434 FILLER_0_107_597
*1435 FILLER_0_107_609
*1436 FILLER_0_107_615
*1437 FILLER_0_107_617
*1438 FILLER_0_107_629
*1439 FILLER_0_107_641
*1440 FILLER_0_107_653
*1441 FILLER_0_107_665
*1442 FILLER_0_107_671
*1443 FILLER_0_107_673
*1444 FILLER_0_107_685
*1445 FILLER_0_107_69
*1446 FILLER_0_107_697
*1447 FILLER_0_107_709
*1448 FILLER_0_107_721
*1449 FILLER_0_107_727
*1450 FILLER_0_107_729